[Format]      =  4.0
[Frequency]   =  0
[Precision]   =  1e-008
[MinAngle]    =  30
[DoSmartMesh] =  1
[Depth]       =  70
[LengthUnits] =  millimeters
[ProblemType] =  planar
[Coordinates] =  cartesian
[ACSolver]    =  0
[PrevType]    =  0
[PrevSoln]    =  ""
[Comment]     =  "Add comments here."
[PointProps]   = 0
[BdryProps]   = 0
[BlockProps]  = 4
  <BeginBlock>
    <BlockName> = "Air"
    <Mu_x> = 1
    <Mu_y> = 1
    <H_c> = 0
    <H_cAngle> = 0
    <J_re> = 0
    <J_im> = 0
    <Sigma> = 0
    <d_lam> = 0
    <Phi_h> = 0
    <Phi_hx> = 0
    <Phi_hy> = 0
    <LamType> = 0
    <LamFill> = 1
    <NStrands> = 0
    <WireD> = 0
    <BHPoints> = 0
  <EndBlock>
  <BeginBlock>
    <BlockName> = "N42"
    <Mu_x> = 1.05
    <Mu_y> = 1.05
    <H_c> = 994529
    <H_cAngle> = 0
    <J_re> = 0
    <J_im> = 0
    <Sigma> = 0.66700000000000004
    <d_lam> = 0
    <Phi_h> = 0
    <Phi_hx> = 0
    <Phi_hy> = 0
    <LamType> = 0
    <LamFill> = 1
    <NStrands> = 0
    <WireD> = 0
    <BHPoints> = 0
  <EndBlock>
  <BeginBlock>
    <BlockName> = "1018 Steel"
    <Mu_x> = 529
    <Mu_y> = 529
    <H_c> = 0
    <H_cAngle> = 0
    <J_re> = 0
    <J_im> = 0
    <Sigma> = 5.7999999999999998
    <d_lam> = 0
    <Phi_h> = 20
    <Phi_hx> = 0
    <Phi_hy> = 0
    <LamType> = 0
    <LamFill> = 1
    <NStrands> = 0
    <WireD> = 0
    <BHPoints> = 13
      0	0
      0.25030000000000002	238.73249999999999
      0.92500000000000004	795.77499999999998
      1.25	1591.55
      1.3899999999999999	2387.3249999999998
      1.5249999999999999	3978.875
      1.71	7957.75
      1.8700000000000001	15915.5
      1.9550000000000001	23873.25
      2.02	39788.75
      2.1099999999999999	79577.5
      2.2250000000000001	159155
      2.4300000000000002	318310
  <EndBlock>
  <BeginBlock>
    <BlockName> = "1mm"
    <Mu_x> = 1
    <Mu_y> = 1
    <H_c> = 0
    <H_cAngle> = 0
    <J_re> = 0
    <J_im> = 0
    <Sigma> = 58
    <d_lam> = 0
    <Phi_h> = 0
    <Phi_hx> = 0
    <Phi_hy> = 0
    <LamType> = 3
    <LamFill> = 1
    <NStrands> = 1
    <WireD> = 1
    <BHPoints> = 0
  <EndBlock>
[CircuitProps]  = 3
  <BeginCircuit>
    <CircuitName> = "A"
    <TotalAmps_re> = 1
    <TotalAmps_im> = 0
    <CircuitType> = 1
  <EndCircuit>
  <BeginCircuit>
    <CircuitName> = "B"
    <TotalAmps_re> = -0.5
    <TotalAmps_im> = -0
    <CircuitType> = 1
  <EndCircuit>
  <BeginCircuit>
    <CircuitName> = "C"
    <TotalAmps_re> = -0.5
    <TotalAmps_im> = -0
    <CircuitType> = 1
  <EndCircuit>
[NumPoints] = 214
228	0	0	0
-228	0	0	0
-163.25	4	0	1
-163.25	-4	0	1
-150.25	-4	0	1
-150.25	4	0	1
-174.75	4	0	1
-174.75	-4	0	1
-187.75	-4	0	1
-187.75	4	0	1
-125.25	4	0	1
-125.25	-4	0	1
-112.25	-4	0	1
-112.25	4	0	1
-136.75	4	0	1
-136.75	-4	0	1
-149.75	-4	0	1
-149.75	4	0	1
-87.25	4	0	1
-87.25	-4	0	1
-74.25	-4	0	1
-74.25	4	0	1
-98.75	4	0	1
-98.75	-4	0	1
-111.75	-4	0	1
-111.75	4	0	1
-49.25	4	0	1
-49.25	-4	0	1
-36.25	-4	0	1
-36.25	4	0	1
-60.75	4	0	1
-60.75	-4	0	1
-73.75	-4	0	1
-73.75	4	0	1
-11.25	4	0	1
-11.25	-4	0	1
1.75	-4	0	1
1.75	4	0	1
-22.75	4	0	1
-22.75	-4	0	1
-35.75	-4	0	1
-35.75	4	0	1
26.75	4	0	1
26.75	-4	0	1
39.75	-4	0	1
39.75	4	0	1
15.25	4	0	1
15.25	-4	0	1
2.25	-4	0	1
2.25	4	0	1
64.75	4	0	1
64.75	-4	0	1
77.75	-4	0	1
77.75	4	0	1
53.25	4	0	1
53.25	-4	0	1
40.25	-4	0	1
40.25	4	0	1
102.75	4	0	1
102.75	-4	0	1
115.75	-4	0	1
115.75	4	0	1
91.25	4	0	1
91.25	-4	0	1
78.25	-4	0	1
78.25	4	0	1
140.75	4	0	1
140.75	-4	0	1
153.75	-4	0	1
153.75	4	0	1
129.25	4	0	1
129.25	-4	0	1
116.25	-4	0	1
116.25	4	0	1
-226.05000000000001	5.0999999999999996	0	0
-226.05000000000001	14.049999999999999	0	0
-201.44999999999999	14.049999999999999	0	0
-201.44999999999999	5.0999999999999996	0	0
-229.94999999999999	5.0999999999999996	0	0
-229.94999999999999	14.049999999999999	0	0
-254.55000000000001	14.049999999999999	0	0
-254.55000000000001	5.0999999999999996	0	0
-226.05000000000001	-5.0999999999999996	0	0
-226.05000000000001	-14.049999999999999	0	0
-201.44999999999999	-14.049999999999999	0	0
-201.44999999999999	-5.0999999999999996	0	0
-229.94999999999999	-5.0999999999999996	0	0
-229.94999999999999	-14.049999999999999	0	0
-254.55000000000001	-14.049999999999999	0	0
-254.55000000000001	-5.0999999999999996	0	0
-169.05000000000001	-5.0999999999999996	0	0
-169.05000000000001	-14.049999999999999	0	0
-144.44999999999999	-14.049999999999999	0	0
-144.44999999999999	-5.0999999999999996	0	0
-172.94999999999999	-5.0999999999999996	0	0
-172.94999999999999	-14.049999999999999	0	0
-197.55000000000001	-14.049999999999999	0	0
-197.55000000000001	-5.0999999999999996	0	0
-169.05000000000001	5.0999999999999996	0	0
-169.05000000000001	14.049999999999999	0	0
-144.44999999999999	14.049999999999999	0	0
-144.44999999999999	5.0999999999999996	0	0
-172.94999999999999	5.0999999999999996	0	0
-172.94999999999999	14.049999999999999	0	0
-197.55000000000001	14.049999999999999	0	0
-197.55000000000001	5.0999999999999996	0	0
-112.05	5.0999999999999996	0	0
-112.05	14.049999999999999	0	0
-87.450000000000003	14.049999999999999	0	0
-87.450000000000003	5.0999999999999996	0	0
-115.95	5.0999999999999996	0	0
-115.95	14.049999999999999	0	0
-140.55000000000001	14.049999999999999	0	0
-140.55000000000001	5.0999999999999996	0	0
-112.05	-5.0999999999999996	0	0
-112.05	-14.049999999999999	0	0
-87.450000000000003	-14.049999999999999	0	0
-87.450000000000003	-5.0999999999999996	0	0
-115.95	-5.0999999999999996	0	0
-115.95	-14.049999999999999	0	0
-140.55000000000001	-14.049999999999999	0	0
-140.55000000000001	-5.0999999999999996	0	0
-55.049999999999997	-5.0999999999999996	0	0
-55.049999999999997	-14.049999999999999	0	0
-30.449999999999999	-14.049999999999999	0	0
-30.449999999999999	-5.0999999999999996	0	0
-58.950000000000003	-5.0999999999999996	0	0
-58.950000000000003	-14.049999999999999	0	0
-83.549999999999997	-14.049999999999999	0	0
-83.549999999999997	-5.0999999999999996	0	0
-55.049999999999997	5.0999999999999996	0	0
-55.049999999999997	14.049999999999999	0	0
-30.449999999999999	14.049999999999999	0	0
-30.449999999999999	5.0999999999999996	0	0
-58.950000000000003	5.0999999999999996	0	0
-58.950000000000003	14.049999999999999	0	0
-83.549999999999997	14.049999999999999	0	0
-83.549999999999997	5.0999999999999996	0	0
1.9499999999999993	5.0999999999999996	0	0
1.9499999999999993	14.049999999999999	0	0
26.550000000000001	14.049999999999999	0	0
26.550000000000001	5.0999999999999996	0	0
-1.9499999999999993	5.0999999999999996	0	0
-1.9499999999999993	14.049999999999999	0	0
-26.550000000000001	14.049999999999999	0	0
-26.550000000000001	5.0999999999999996	0	0
1.9499999999999993	-5.0999999999999996	0	0
1.9499999999999993	-14.049999999999999	0	0
26.550000000000001	-14.049999999999999	0	0
26.550000000000001	-5.0999999999999996	0	0
-1.9499999999999993	-5.0999999999999996	0	0
-1.9499999999999993	-14.049999999999999	0	0
-26.550000000000001	-14.049999999999999	0	0
-26.550000000000001	-5.0999999999999996	0	0
58.950000000000003	-5.0999999999999996	0	0
58.950000000000003	-14.049999999999999	0	0
83.549999999999997	-14.049999999999999	0	0
83.549999999999997	-5.0999999999999996	0	0
55.049999999999997	-5.0999999999999996	0	0
55.049999999999997	-14.049999999999999	0	0
30.449999999999999	-14.049999999999999	0	0
30.449999999999999	-5.0999999999999996	0	0
58.950000000000003	5.0999999999999996	0	0
58.950000000000003	14.049999999999999	0	0
83.549999999999997	14.049999999999999	0	0
83.549999999999997	5.0999999999999996	0	0
55.049999999999997	5.0999999999999996	0	0
55.049999999999997	14.049999999999999	0	0
30.449999999999999	14.049999999999999	0	0
30.449999999999999	5.0999999999999996	0	0
115.95	5.0999999999999996	0	0
115.95	14.049999999999999	0	0
140.55000000000001	14.049999999999999	0	0
140.55000000000001	5.0999999999999996	0	0
112.05	5.0999999999999996	0	0
112.05	14.049999999999999	0	0
87.450000000000003	14.049999999999999	0	0
87.450000000000003	5.0999999999999996	0	0
115.95	-5.0999999999999996	0	0
115.95	-14.049999999999999	0	0
140.55000000000001	-14.049999999999999	0	0
140.55000000000001	-5.0999999999999996	0	0
112.05	-5.0999999999999996	0	0
112.05	-14.049999999999999	0	0
87.450000000000003	-14.049999999999999	0	0
87.450000000000003	-5.0999999999999996	0	0
172.94999999999999	-5.0999999999999996	0	0
172.94999999999999	-14.049999999999999	0	0
197.55000000000001	-14.049999999999999	0	0
197.55000000000001	-5.0999999999999996	0	0
169.05000000000001	-5.0999999999999996	0	0
169.05000000000001	-14.049999999999999	0	0
144.44999999999999	-14.049999999999999	0	0
144.44999999999999	-5.0999999999999996	0	0
172.94999999999999	5.0999999999999996	0	0
172.94999999999999	14.049999999999999	0	0
197.55000000000001	14.049999999999999	0	0
197.55000000000001	5.0999999999999996	0	0
169.05000000000001	5.0999999999999996	0	0
169.05000000000001	14.049999999999999	0	0
144.44999999999999	14.049999999999999	0	0
144.44999999999999	5.0999999999999996	0	0
199.5	14.049999999999999	0	0
199.5	24.049999999999997	0	0
-256.5	24.049999999999997	0	0
-256.5	14.049999999999999	0	0
199.5	-14.049999999999999	0	0
199.5	-24.049999999999997	0	0
-256.5	-24.049999999999997	0	0
-256.5	-14.049999999999999	0	0
400	100	0	0
-400	100	0	0
-400	-100	0	0
400	-100	0	0
[NumSegments] = 244
2	3	-1	0	0	0
3	4	-1	0	0	0
4	5	-1	0	0	0
2	5	-1	0	0	0
6	7	-1	0	0	0
7	8	-1	0	0	0
8	9	-1	0	0	0
6	9	-1	0	0	0
10	11	-1	0	0	0
11	12	-1	0	0	0
12	13	-1	0	0	0
10	13	-1	0	0	0
14	15	-1	0	0	0
15	16	-1	0	0	0
16	17	-1	0	0	0
14	17	-1	0	0	0
18	19	-1	0	0	0
19	20	-1	0	0	0
20	21	-1	0	0	0
18	21	-1	0	0	0
22	23	-1	0	0	0
23	24	-1	0	0	0
24	25	-1	0	0	0
22	25	-1	0	0	0
26	27	-1	0	0	0
27	28	-1	0	0	0
28	29	-1	0	0	0
26	29	-1	0	0	0
30	31	-1	0	0	0
31	32	-1	0	0	0
32	33	-1	0	0	0
30	33	-1	0	0	0
34	35	-1	0	0	0
35	36	-1	0	0	0
36	37	-1	0	0	0
34	37	-1	0	0	0
38	39	-1	0	0	0
39	40	-1	0	0	0
40	41	-1	0	0	0
38	41	-1	0	0	0
42	43	-1	0	0	0
43	44	-1	0	0	0
44	45	-1	0	0	0
42	45	-1	0	0	0
46	47	-1	0	0	0
47	48	-1	0	0	0
48	49	-1	0	0	0
46	49	-1	0	0	0
50	51	-1	0	0	0
51	52	-1	0	0	0
52	53	-1	0	0	0
50	53	-1	0	0	0
54	55	-1	0	0	0
55	56	-1	0	0	0
56	57	-1	0	0	0
54	57	-1	0	0	0
58	59	-1	0	0	0
59	60	-1	0	0	0
60	61	-1	0	0	0
58	61	-1	0	0	0
62	63	-1	0	0	0
63	64	-1	0	0	0
64	65	-1	0	0	0
62	65	-1	0	0	0
66	67	-1	0	0	0
67	68	-1	0	0	0
68	69	-1	0	0	0
66	69	-1	0	0	0
70	71	-1	0	0	0
71	72	-1	0	0	0
72	73	-1	0	0	0
70	73	-1	0	0	0
74	75	-1	0	0	0
75	76	-1	0	0	0
76	77	-1	0	0	0
74	77	-1	0	0	0
78	79	-1	0	0	0
79	80	-1	0	0	0
80	81	-1	0	0	0
78	81	-1	0	0	0
82	83	-1	0	0	0
83	84	-1	0	0	0
84	85	-1	0	0	0
82	85	-1	0	0	0
86	87	-1	0	0	0
87	88	-1	0	0	0
88	89	-1	0	0	0
86	89	-1	0	0	0
90	91	-1	0	0	0
91	92	-1	0	0	0
92	93	-1	0	0	0
90	93	-1	0	0	0
94	95	-1	0	0	0
95	96	-1	0	0	0
96	97	-1	0	0	0
94	97	-1	0	0	0
98	99	-1	0	0	0
99	100	-1	0	0	0
100	101	-1	0	0	0
98	101	-1	0	0	0
102	103	-1	0	0	0
103	104	-1	0	0	0
104	105	-1	0	0	0
102	105	-1	0	0	0
106	107	-1	0	0	0
107	108	-1	0	0	0
108	109	-1	0	0	0
106	109	-1	0	0	0
110	111	-1	0	0	0
111	112	-1	0	0	0
112	113	-1	0	0	0
110	113	-1	0	0	0
114	115	-1	0	0	0
115	116	-1	0	0	0
116	117	-1	0	0	0
114	117	-1	0	0	0
118	119	-1	0	0	0
119	120	-1	0	0	0
120	121	-1	0	0	0
118	121	-1	0	0	0
122	123	-1	0	0	0
123	124	-1	0	0	0
124	125	-1	0	0	0
122	125	-1	0	0	0
126	127	-1	0	0	0
127	128	-1	0	0	0
128	129	-1	0	0	0
126	129	-1	0	0	0
130	131	-1	0	0	0
131	132	-1	0	0	0
132	133	-1	0	0	0
130	133	-1	0	0	0
134	135	-1	0	0	0
135	136	-1	0	0	0
136	137	-1	0	0	0
134	137	-1	0	0	0
138	139	-1	0	0	0
139	140	-1	0	0	0
140	141	-1	0	0	0
138	141	-1	0	0	0
142	143	-1	0	0	0
143	144	-1	0	0	0
144	145	-1	0	0	0
142	145	-1	0	0	0
146	147	-1	0	0	0
147	148	-1	0	0	0
148	149	-1	0	0	0
146	149	-1	0	0	0
150	151	-1	0	0	0
151	152	-1	0	0	0
152	153	-1	0	0	0
150	153	-1	0	0	0
154	155	-1	0	0	0
155	156	-1	0	0	0
156	157	-1	0	0	0
154	157	-1	0	0	0
158	159	-1	0	0	0
159	160	-1	0	0	0
160	161	-1	0	0	0
158	161	-1	0	0	0
162	163	-1	0	0	0
163	164	-1	0	0	0
164	165	-1	0	0	0
162	165	-1	0	0	0
166	167	-1	0	0	0
167	168	-1	0	0	0
168	169	-1	0	0	0
166	169	-1	0	0	0
170	171	-1	0	0	0
171	172	-1	0	0	0
172	173	-1	0	0	0
170	173	-1	0	0	0
174	175	-1	0	0	0
175	176	-1	0	0	0
176	177	-1	0	0	0
174	177	-1	0	0	0
178	179	-1	0	0	0
179	180	-1	0	0	0
180	181	-1	0	0	0
178	181	-1	0	0	0
182	183	-1	0	0	0
183	184	-1	0	0	0
184	185	-1	0	0	0
182	185	-1	0	0	0
186	187	-1	0	0	0
187	188	-1	0	0	0
188	189	-1	0	0	0
186	189	-1	0	0	0
190	191	-1	0	0	0
191	192	-1	0	0	0
192	193	-1	0	0	0
190	193	-1	0	0	0
194	195	-1	0	0	0
195	196	-1	0	0	0
196	197	-1	0	0	0
194	197	-1	0	0	0
198	199	-1	0	0	0
199	200	-1	0	0	0
200	201	-1	0	0	0
198	201	-1	0	0	0
202	203	-1	0	0	0
203	204	-1	0	0	0
204	205	-1	0	0	0
202	196	-1	0	0	0
195	199	-1	0	0	0
200	172	-1	0	0	0
171	175	-1	0	0	0
176	164	-1	0	0	0
163	167	-1	0	0	0
168	140	-1	0	0	0
139	143	-1	0	0	0
144	132	-1	0	0	0
131	135	-1	0	0	0
136	108	-1	0	0	0
107	111	-1	0	0	0
112	100	-1	0	0	0
99	103	-1	0	0	0
104	76	-1	0	0	0
75	79	-1	0	0	0
80	205	-1	0	0	0
206	207	-1	0	0	0
207	208	-1	0	0	0
208	209	-1	0	0	0
206	188	-1	0	0	0
187	191	-1	0	0	0
192	180	-1	0	0	0
179	183	-1	0	0	0
184	156	-1	0	0	0
155	159	-1	0	0	0
160	148	-1	0	0	0
147	151	-1	0	0	0
152	124	-1	0	0	0
123	127	-1	0	0	0
128	116	-1	0	0	0
115	119	-1	0	0	0
120	92	-1	0	0	0
91	95	-1	0	0	0
96	84	-1	0	0	0
83	87	-1	0	0	0
88	209	-1	0	0	0
210	211	-1	0	0	0
211	212	-1	0	0	0
212	213	-1	0	0	0
210	213	-1	0	0	0
[NumArcSegments] = 0
[NumHoles] = 0
[NumBlockLabels] = 53
-156.75	0	4	-1	1	0	1	220	0
-181.25	0	4	-1	1	0	1	-220	0
-118.75	0	4	-1	2	0	1	220	0
-143.25	0	4	-1	2	0	1	-220	0
-80.75	0	4	-1	3	0	1	220	0
-105.25	0	4	-1	3	0	1	-220	0
-42.75	0	4	-1	1	0	1	220	0
-67.25	0	4	-1	1	0	1	-220	0
-4.75	0	4	-1	2	0	1	220	0
-29.25	0	4	-1	2	0	1	-220	0
33.25	0	4	-1	3	0	1	220	0
8.75	0	4	-1	3	0	1	-220	0
71.25	0	4	-1	1	0	1	220	0
46.75	0	4	-1	1	0	1	-220	0
109.25	0	4	-1	2	0	1	220	0
84.75	0	4	-1	2	0	1	-220	0
147.25	0	4	-1	3	0	1	220	0
122.75	0	4	-1	3	0	1	-220	0
-213.75	9.5749999999999993	2	-1	0	270	0	1	0
-242.25	9.5749999999999993	2	-1	0	90	0	1	0
-213.75	-9.5749999999999993	2	-1	0	270	0	1	0
-242.25	-9.5749999999999993	2	-1	0	90	0	1	0
-156.75	-9.5749999999999993	2	-1	0	270	0	1	0
-185.25	-9.5749999999999993	2	-1	0	90	0	1	0
-156.75	9.5749999999999993	2	-1	0	270	0	1	0
-185.25	9.5749999999999993	2	-1	0	90	0	1	0
-99.75	9.5749999999999993	2	-1	0	270	0	1	0
-128.25	9.5749999999999993	2	-1	0	90	0	1	0
-99.75	-9.5749999999999993	2	-1	0	270	0	1	0
-128.25	-9.5749999999999993	2	-1	0	90	0	1	0
-42.75	-9.5749999999999993	2	-1	0	270	0	1	0
-71.25	-9.5749999999999993	2	-1	0	90	0	1	0
-42.75	9.5749999999999993	2	-1	0	270	0	1	0
-71.25	9.5749999999999993	2	-1	0	90	0	1	0
14.25	9.5749999999999993	2	-1	0	270	0	1	0
-14.25	9.5749999999999993	2	-1	0	90	0	1	0
14.25	-9.5749999999999993	2	-1	0	270	0	1	0
-14.25	-9.5749999999999993	2	-1	0	90	0	1	0
71.25	-9.5749999999999993	2	-1	0	270	0	1	0
42.75	-9.5749999999999993	2	-1	0	90	0	1	0
71.25	9.5749999999999993	2	-1	0	270	0	1	0
42.75	9.5749999999999993	2	-1	0	90	0	1	0
128.25	9.5749999999999993	2	-1	0	270	0	1	0
99.75	9.5749999999999993	2	-1	0	90	0	1	0
128.25	-9.5749999999999993	2	-1	0	270	0	1	0
99.75	-9.5749999999999993	2	-1	0	90	0	1	0
185.25	-9.5749999999999993	2	-1	0	270	0	1	0
156.75	-9.5749999999999993	2	-1	0	90	0	1	0
185.25	9.5749999999999993	2	-1	0	270	0	1	0
156.75	9.5749999999999993	2	-1	0	90	0	1	0
0	14.190499999999998	3	-1	0	0	0	1	0
0	-14.190499999999998	3	-1	0	0	0	1	0
399	99	1	-1	0	0	0	1	0
